Version 4.1
SHEET 1 880 680
WIRE 480 16 368 16
WIRE 608 16 480 16
WIRE 368 48 368 16
WIRE 208 64 192 64
WIRE 320 64 288 64
WIRE 320 112 304 112
WIRE 192 128 192 64
WIRE 304 128 304 112
WIRE 480 128 480 96
WIRE 512 128 480 128
WIRE 368 176 368 128
WIRE 96 208 96 192
WIRE 144 208 96 208
WIRE 256 208 224 208
WIRE 368 208 368 176
WIRE 368 208 320 208
WIRE 432 208 368 208
WIRE 96 240 96 208
WIRE 368 240 368 208
WIRE 480 272 480 224
WIRE 96 336 96 320
WIRE 368 336 368 320
FLAG 480 272 0
FLAG 368 336 0
FLAG 608 96 0
FLAG 304 128 0
FLAG 96 336 0
FLAG 192 128 0
FLAG 512 128 EN
FLAG 96 192 GPIO
FLAG 368 176 Vg
SYMBOL res 240 192 R90
WINDOW 0 0 56 VBottom 2
WINDOW 3 32 56 VTop 2
SYMATTR InstName R1
SYMATTR Value 10k
SYMBOL res 352 224 R0
SYMATTR InstName R2
SYMATTR Value 100k
SYMBOL Contrib\\Toshiba\\lvmos\\T2N7002AK_G0_00 432 128 R0
SYMATTR InstName U1
SYMBOL diode 256 224 R270
WINDOW 0 32 32 VTop 2
WINDOW 3 0 32 VBottom 2
SYMATTR InstName D1
SYMBOL res 464 0 R0
SYMATTR InstName R3
SYMATTR Value 100k
SYMBOL voltage 608 0 R0
WINDOW 123 0 0 Left 0
WINDOW 39 0 0 Left 0
SYMATTR InstName V1
SYMATTR Value 12
SYMBOL sw 368 144 M180
WINDOW 3 53 115 VLeft 2
SYMATTR InstName S1
SYMATTR Value MYSW
SYMBOL voltage 96 224 R0
WINDOW 3 -140 146 Left 2
WINDOW 123 0 0 Left 0
WINDOW 39 0 0 Left 0
SYMATTR InstName V2
SYMATTR Value PULSE(0 3.3 0 1u 1u 25m 50m)
SYMBOL voltage 304 64 R90
WINDOW 0 -32 56 VBottom 2
WINDOW 3 -95 60 VTop 2
WINDOW 123 0 0 Left 0
WINDOW 39 0 0 Left 0
SYMATTR InstName V3
SYMATTR Value PULSE(0 5 0 1u 1u 30m 60m)
TEXT 536 264 Left 2 !.tran 200m
TEXT 464 320 Left 2 !.model MYSW SW()
